<routes xmlns:xsi="http://www.w3.org/2001/XMLSchema-instance" xsi:noNamespaceSchemaLocation="http://sumo.dlr.de/xsd/routes_file.xsd">

    <vType id="bus_bus" vClass="bus" />
    <vType id="motorcycle_motorcycle" vClass="motorcycle" />
    <vType id="veh_passenger" vClass="passenger" />

    <!-- Trips from 44769003#0 to -345262129#6 -->
    <trip id="bus0_1" depart="0.00" from="44769003#0" to="-345262129#6" type="bus_bus" />
    <trip id="bus0_2" depart="0.00" from="44769003#0" to="-345262129#6" type="bus_bus" />
    <trip id="bus0_3" depart="0.00" from="44769003#0" to="-345262129#6" type="bus_bus" />
    <trip id="motorcycle0" depart="0.00" from="44769003#0" to="-345262129#6" type="motorcycle_motorcycle" />
    <trip id="motorcycle1" depart="1.00" from="44769003#0" to="-345262129#6" type="motorcycle_motorcycle" />
    <trip id="motorcycle2" depart="2.00" from="44769003#0" to="-345262129#6" type="motorcycle_motorcycle" />
    <trip id="passenger0" depart="3.00" from="44769003#0" to="-345262129#6" type="veh_passenger" />
    <trip id="passenger1" depart="4.00" from="44769003#0" to="-345262129#6" type="veh_passenger" />
    <trip id="passenger2" depart="5.00" from="44769003#0" to="-345262129#6" type="veh_passenger" />
    <trip id="passenger3" depart="6.00" from="44769003#0" to="-345262129#6" type="veh_passenger" />
    <trip id="passenger4" depart="7.00" from="44769003#0" to="-345262129#6" type="veh_passenger" />
    <trip id="passenger5" depart="8.00" from="44769003#0" to="-345262129#6" type="veh_passenger" />
    <trip id="passenger6" depart="9.00" from="44769003#0" to="-345262129#6" type="veh_passenger" />
    <trip id="passenger7" depart="10.00" from="44769003#0" to="-345262129#6" type="veh_passenger" />
    <trip id="passenger8" depart="11.00" from="44769003#0" to="-345262129#6" type="veh_passenger" />
    <trip id="passenger9" depart="12.00" from="44769003#0" to="-345262129#6" type="veh_passenger" />

    <!-- Trips from 44769003#0 to 461660910#10 -->
    <trip id="bus10" depart="13.00" from="44769003#0" to="461660910#10" type="bus_bus" />
    <trip id="bus11" depart="13.00" from="44769003#0" to="461660910#10" type="bus_bus" />
    <trip id="bus12" depart="13.00" from="44769003#0" to="461660910#10" type="bus_bus" />
    <trip id="bus13" depart="13.00" from="44769003#0" to="461660910#10" type="bus_bus" />
    <trip id="bus14" depart="13.00" from="44769003#0" to="461660910#10" type="bus_bus" />
    <trip id="motorcycle3" depart="13.00" from="44769003#0" to="461660910#10" type="motorcycle_motorcycle" />
    <trip id="motorcycle4" depart="13.00" from="44769003#0" to="461660910#10" type="motorcycle_motorcycle" />
    <trip id="motorcycle5" depart="13.00" from="44769003#0" to="461660910#10" type="motorcycle_motorcycle" />
    <trip id="motorcycle6" depart="13.00" from="44769003#0" to="461660910#10" type="motorcycle_motorcycle" />
    <trip id="motorcycle7" depart="13.00" from="44769003#0" to="461660910#10" type="motorcycle_motorcycle" />
    <trip id="passenger10" depart="13.00" from="44769003#0" to="461660910#10" type="veh_passenger" />
    <trip id="passenger11" depart="13.00" from="44769003#0" to="461660910#10" type="veh_passenger" />
    <trip id="passenger12" depart="13.00" from="44769003#0" to="461660910#10" type="veh_passenger" />
    <trip id="passenger13" depart="13.00" from="44769003#0" to="461660910#10" type="veh_passenger" />
    <trip id="passenger14" depart="14.00" from="44769003#0" to="461660910#10" type="veh_passenger" />

    <!-- More trips... -->

    <!-- Trips from 44769003#0 to -131472024#1 -->
    <trip id="bus15" depart="15.00" from="44769003#0" to="-131472024#1" type="bus_bus" />
    <trip id="bus16" depart="16.00" from="44769003#0" to="-131472024#1" type="bus_bus" />
    <trip id="bus17" depart="17.00" from="44769003#0" to="-131472024#1" type="bus_bus" />
    <trip id="bus18" depart="18.00" from="44769003#0" to="-131472024#1" type="bus_bus" />
    <trip id="bus19" depart="19.00" from="44769003#0" to="-131472024#1" type="bus_bus" />
    <trip id="bus20" depart="20.00" from="44769003#0" to="-131472024#1" type="bus_bus" />
    <trip id="motorcycle8" depart="21.00" from="44769003#0" to="-131472024#1" type="motorcycle_motorcycle" />
    <trip id="motorcycle9" depart="22.00" from="44769003#0" to="-131472024#1" type="motorcycle_motorcycle" />
    <trip id="motorcycle10" depart="23.00" from="44769003#0" to="-131472024#1" type="motorcycle_motorcycle" />
    <trip id="motorcycle11" depart="24.00" from="44769003#0" to="-131472024#1" type="motorcycle_motorcycle" />
    <trip id="motorcycle12" depart="25.00" from="44769003#0" to="-131472024#1" type="motorcycle_motorcycle" />
    <trip id="passenger15" depart="25.00" from="44769003#0" to="-131472024#1" type="veh_passenger" />
    <trip id="passenger16" depart="25.00" from="44769003#0" to="-131472024#1" type="veh_passenger" />
    <trip id="passenger17" depart="26.00" from="44769003#0" to="-131472024#1" type="veh_passenger" />
    <trip id="passenger18" depart="26.00" from="44769003#0" to="-131472024#1" type="veh_passenger" />
    <trip id="passenger19" depart="26.00" from="44769003#0" to="-131472024#1" type="veh_passenger" />
    <trip id="passenger15_1" depart="27.00" from="44769003#0" to="-131472024#1" type="veh_passenger" />
    <trip id="passenger16_1" depart="27.00" from="44769003#0" to="-131472024#1" type="veh_passenger" />
    <trip id="passenger17_1" depart="28.00" from="44769003#0" to="-131472024#1" type="veh_passenger" />
    <trip id="passenger18_1" depart="29.00" from="44769003#0" to="-131472024#1" type="veh_passenger" />
    <trip id="passenger19_1" depart="30.00" from="44769003#0" to="-131472024#1" type="veh_passenger" />

    <!-- More trips... -->

    <!-- Trips from 44769003#0 to 362845469#1 -->
    <trip id="bus21" depart="31.00" from="44769003#0" to="362845469#1" type="bus_bus" />
    <trip id="bus22" depart="32.00" from="44769003#0" to="362845469#1" type="bus_bus" />
    <trip id="motorcycle13" depart="33.00" from="44769003#0" to="362845469#1" type="motorcycle_motorcycle" />
    <trip id="motorcycle14" depart="34.00" from="44769003#0" to="362845469#1" type="motorcycle_motorcycle" />
    <trip id="passenger20" depart="35.00" from="44769003#0" to="362845469#1" type="veh_passenger" />
    <trip id="passenger21" depart="36.00" from="44769003#0" to="362845469#1" type="veh_passenger" />
    <trip id="passenger22" depart="37.00" from="44769003#0" to="362845469#1" type="veh_passenger" />
    <trip id="passenger23" depart="38.00" from="44769003#0" to="362845469#1" type="veh_passenger" />
    <trip id="passenger24" depart="39.00" from="44769003#0" to="362845469#1" type="veh_passenger" />

    <!-- Trips from 44769003#0 to 279322509#4 -->
    <trip id="bus23" depart="40.00" from="44769003#0" to="279322509#4" type="bus_bus" />
    <trip id="bus24" depart="41.00" from="44769003#0" to="279322509#4" type="bus_bus" />
    <trip id="motorcycle15" depart="42.00" from="44769003#0" to="279322509#4" type="motorcycle_motorcycle" />
    <trip id="motorcycle16" depart="43.00" from="44769003#0" to="279322509#4" type="motorcycle_motorcycle" />
    <trip id="passenger25" depart="44.00" from="44769003#0" to="279322509#4" type="veh_passenger" />
    <trip id="passenger26" depart="45.00" from="44769003#0" to="279322509#4" type="veh_passenger" />
    <trip id="passenger27" depart="46.00" from="44769003#0" to="279322509#4" type="veh_passenger" />
    <trip id="passenger28" depart="47.00" from="44769003#0" to="279322509#4" type="veh_passenger" />
    <trip id="passenger29" depart="48.00" from="44769003#0" to="279322509#4" type="veh_passenger" />

    <!-- More trips... -->

    <!-- Trips from 44769003#0 to 993917081#6 -->
    <trip id="bus25" depart="49.00" from="44769003#0" to="993917081#6" type="bus_bus" />
    <trip id="bus26" depart="50.00" from="44769003#0" to="993917081#6" type="bus_bus" />
    <trip id="bus27" depart="51.00" from="44769003#0" to="993917081#6" type="bus_bus" />
    <trip id="bus28" depart="52.00" from="44769003#0" to="993917081#6" type="bus_bus" />
    <trip id="bus29" depart="53.00" from="44769003#0" to="993917081#6" type="bus_bus" />
    <trip id="bus30" depart="54.00" from="44769003#0" to="993917081#6" type="bus_bus" />
    <trip id="bus31" depart="55.00" from="44769003#0" to="993917081#6" type="bus_bus" />
    <trip id="bus32" depart="56.00" from="44769003#0" to="993917081#6" type="bus_bus" />
    <trip id="motorcycle17" depart="57.00" from="44769003#0" to="993917081#6" type="motorcycle_motorcycle" />
    <trip id="motorcycle18" depart="58.00" from="44769003#0" to="993917081#6" type="motorcycle_motorcycle" />
    <trip id="motorcycle19" depart="59.00" from="44769003#0" to="993917081#6" type="motorcycle_motorcycle" />
    <trip id="passenger30" depart="60.00" from="44769003#0" to="993917081#6" type="veh_passenger" />
    <trip id="passenger31" depart="60.00" from="44769003#0" to="993917081#6" type="veh_passenger" />
    <trip id="passenger32" depart="61.00" from="44769003#0" to="993917081#6" type="veh_passenger" />
    <trip id="passenger33" depart="62.00" from="44769003#0" to="993917081#6" type="veh_passenger" />
    <trip id="passenger34" depart="62.00" from="44769003#0" to="993917081#6" type="veh_passenger" />
    <trip id="passenger30_1" depart="62.00" from="44769003#0" to="993917081#6" type="veh_passenger" />
    <trip id="passenger31_1" depart="63.00" from="44769003#0" to="993917081#6" type="veh_passenger" />
    <trip id="passenger32_1" depart="63.00" from="44769003#0" to="993917081#6" type="veh_passenger" />
    <trip id="passenger33_1" depart="63.00" from="44769003#0" to="993917081#6" type="veh_passenger" />
    <trip id="passenger34_1" depart="64.00" from="44769003#0" to="993917081#6" type="veh_passenger" />
    <trip id="passenger30_2" depart="64.00" from="44769003#0" to="993917081#6" type="veh_passenger" />
    <trip id="passenger31_2" depart="64.00" from="44769003#0" to="993917081#6" type="veh_passenger" />
    <trip id="passenger32_2" depart="64.00" from="44769003#0" to="993917081#6" type="veh_passenger" />
    <trip id="passenger33_2" depart="64.00" from="44769003#0" to="993917081#6" type="veh_passenger" />
    <trip id="passenger34_2" depart="64.00" from="44769003#0" to="993917081#6" type="veh_passenger" />

    <!-- Trips from 44769003#0 to 281484617 -->
    <trip id="bus33" depart="65.00" from="44769003#0" to="281484617" type="bus_bus" />
    <trip id="bus34" depart="66.00" from="44769003#0" to="281484617" type="bus_bus" />
    <trip id="bus35" depart="67.00" from="44769003#0" to="281484617" type="bus_bus" />
    <trip id="bus36" depart="68.00" from="44769003#0" to="281484617" type="bus_bus" />
    <trip id="bus37" depart="69.00" from="44769003#0" to="281484617" type="bus_bus" />
    <trip id="bus38" depart="70.00" from="44769003#0" to="281484617" type="bus_bus" />
    <trip id="bus39" depart="71.00" from="44769003#0" to="281484617" type="bus_bus" />
    <trip id="bus40" depart="72.00" from="44769003#0" to="281484617" type="bus_bus" />
    <trip id="motorcycle20" depart="73.00" from="44769003#0" to="281484617" type="motorcycle_motorcycle" />
    <trip id="motorcycle21" depart="74.00" from="44769003#0" to="281484617" type="motorcycle_motorcycle" />
    <trip id="motorcycle22" depart="75.00" from="44769003#0" to="281484617" type="motorcycle_motorcycle" />
    <trip id="passenger35" depart="76.00" from="44769003#0" to="281484617" type="veh_passenger" />
    <trip id="passenger36" depart="77.00" from="44769003#0" to="281484617" type="veh_passenger" />
    <trip id="passenger37" depart="78.00" from="44769003#0" to="281484617" type="veh_passenger" />
    <trip id="passenger38" depart="79.00" from="44769003#0" to="281484617" type="veh_passenger" />
    <trip id="passenger39" depart="80.00" from="44769003#0" to="281484617" type="veh_passenger" />
    <trip id="passenger35_1" depart="80.00" from="44769003#0" to="281484617" type="veh_passenger" />
    <trip id="passenger36_1" depart="80.00" from="44769003#0" to="281484617" type="veh_passenger" />
    <trip id="passenger37_1" depart="80.00" from="44769003#0" to="281484617" type="veh_passenger" />
    <trip id="passenger38_1" depart="80.00" from="44769003#0" to="281484617" type="veh_passenger" />
    <trip id="passenger39_1" depart="80.00" from="44769003#0" to="281484617" type="veh_passenger" />
    <trip id="passenger35_2" depart="80.00" from="44769003#0" to="281484617" type="veh_passenger" />
    <trip id="passenger36_2" depart="80.00" from="44769003#0" to="281484617" type="veh_passenger" />
    <trip id="passenger37_2" depart="80.00" from="44769003#0" to="281484617" type="veh_passenger" />
    <trip id="passenger38_2" depart="80.00" from="44769003#0" to="281484617" type="veh_passenger" />
    <trip id="passenger39_2" depart="81.00" from="44769003#0" to="281484617" type="veh_passenger" />

    <!-- Trips from 44769003#0 to 1053836591 -->
    <trip id="motorcycle23" depart="81.00" from="44769003#0" to="1053836591" type="motorcycle_motorcycle" />
    <trip id="motorcycle24" depart="82.00" from="44769003#0" to="1053836591" type="motorcycle_motorcycle" />
    <trip id="motorcycle25" depart="83.00" from="44769003#0" to="1053836591" type="motorcycle_motorcycle" />
    <trip id="motorcycle26" depart="84.00" from="44769003#0" to="1053836591" type="motorcycle_motorcycle" />
    <trip id="motorcycle27" depart="85.00" from="44769003#0" to="1053836591" type="motorcycle_motorcycle" />
    <trip id="motorcycle28" depart="86.00" from="44769003#0" to="1053836591" type="motorcycle_motorcycle" />
    <trip id="motorcycle29" depart="87.00" from="44769003#0" to="1053836591" type="motorcycle_motorcycle" />
    <trip id="motorcycle30" depart="88.00" from="44769003#0" to="1053836591" type="motorcycle_motorcycle" />
    <trip id="passenger40" depart="89.00" from="44769003#0" to="1053836591" type="veh_passenger" />
    <trip id="passenger41" depart="90.00" from="44769003#0" to="1053836591" type="veh_passenger" />
    <trip id="passenger42" depart="91.00" from="44769003#0" to="1053836591" type="veh_passenger" />
    <trip id="passenger43" depart="92.00" from="44769003#0" to="1053836591" type="veh_passenger" />
    <trip id="passenger44" depart="93.00" from="44769003#0" to="1053836591" type="veh_passenger" />
    <trip id="passenger45" depart="94.00" from="44769003#0" to="1053836591" type="veh_passenger" />
    <trip id="passenger46" depart="95.00" from="44769003#0" to="1053836591" type="veh_passenger" />
    <trip id="passenger47" depart="96.00" from="44769003#0" to="1053836591" type="veh_passenger" />
    <trip id="passenger48" depart="97.00" from="44769003#0" to="1053836591" type="veh_passenger" />
    <trip id="passenger49" depart="98.00" from="44769003#0" to="1053836591" type="veh_passenger" />
    <trip id="passenger50" depart="99.00" from="44769003#0" to="1053836591" type="veh_passenger" />

    <!-- More trips... -->

    <!-- Trips from -345009374#0 to -345262129#6 -->
    <trip id="bus511" depart="100.00" from="-345009374#0" to="-345262129#6" type="bus_bus" />
    <trip id="bus521" depart="100.00" from="-345009374#0" to="-345262129#6" type="bus_bus" />
    <trip id="bus531" depart="100.00" from="-345009374#0" to="-345262129#6" type="bus_bus" />
    <trip id="motorcycle31_1" depart="101.00" from="-345009374#0" to="-345262129#6" type="motorcycle_motorcycle" />
    <trip id="motorcycle32_1" depart="101.00" from="-345009374#0" to="-345262129#6" type="motorcycle_motorcycle" />
    <trip id="motorcycle33_1" depart="101.00" from="-345009374#0" to="-345262129#6" type="motorcycle_motorcycle" />
    <trip id="passenger511" depart="102.00" from="-345009374#0" to="-345262129#6" type="veh_passenger" />
    <trip id="passenger521" depart="103.00" from="-345009374#0" to="-345262129#6" type="veh_passenger" />
    <trip id="passenger531" depart="104.00" from="-345009374#0" to="-345262129#6" type="veh_passenger" />
    <trip id="passenger541" depart="104.00" from="-345009374#0" to="-345262129#6" type="veh_passenger" />
    <trip id="passenger551" depart="104.00" from="-345009374#0" to="-345262129#6" type="veh_passenger" />
    
    <!-- Trips from -345009374#0 to 461660910#10 -->
    <trip id="bus512" depart="104.00" from="-345009374#0" to="461660910#10" type="bus_bus" />
    <trip id="bus522" depart="104.00" from="-345009374#0" to="461660910#10" type="bus_bus" />
    <trip id="bus532" depart="105.00" from="-345009374#0" to="461660910#10" type="bus_bus" />
    <trip id="bus542" depart="106.00" from="-345009374#0" to="461660910#10" type="bus_bus" />
    <trip id="bus552" depart="107.00" from="-345009374#0" to="461660910#10" type="bus_bus" />
    <trip id="motorcycle312" depart="108.00" from="-345009374#0" to="461660910#10" type="motorcycle_motorcycle" />
    <trip id="motorcycle322" depart="109.00" from="-345009374#0" to="461660910#10" type="motorcycle_motorcycle" />
    <trip id="motorcycle332" depart="110.00" from="-345009374#0" to="461660910#10" type="motorcycle_motorcycle" />
    <trip id="passenger512" depart="111.00" from="-345009374#0" to="461660910#10" type="veh_passenger" />
    <trip id="passenger522" depart="112.00" from="-345009374#0" to="461660910#10" type="veh_passenger" />
    <trip id="passenger532" depart="113.00" from="-345009374#0" to="461660910#10" type="veh_passenger" />
    <trip id="passenger542" depart="114.00" from="-345009374#0" to="461660910#10" type="veh_passenger" />
    <trip id="passenger552" depart="115.00" from="-345009374#0" to="461660910#10" type="veh_passenger" />
    
    <!-- Trips from -345009374#0_1 to -131472024#1 -->
    <trip id="bus513" depart="115.00" from="-345009374#0" to="-131472024#1" type="bus_bus" />
    <trip id="bus523" depart="115.00" from="-345009374#0" to="-131472024#1" type="bus_bus" />
    <trip id="bus533" depart="115.00" from="-345009374#0" to="-131472024#1" type="bus_bus" />
    <trip id="bus543" depart="115.00" from="-345009374#0" to="-131472024#1" type="bus_bus" />
    <trip id="bus553" depart="115.00" from="-345009374#0" to="-131472024#1" type="bus_bus" />
    <trip id="bus563" depart="115.00" from="-345009374#0" to="-131472024#1" type="bus_bus" />
    <trip id="motorcycle313" depart="115.00" from="-345009374#0" to="-131472024#1" type="motorcycle_motorcycle" />
    <trip id="motorcycle323" depart="115.00" from="-345009374#0" to="-131472024#1" type="motorcycle_motorcycle" />
    <trip id="motorcycle333" depart="115.00" from="-345009374#0" to="-131472024#1" type="motorcycle_motorcycle" />
    <trip id="passenger533" depart="115.00" from="-345009374#0" to="-131472024#1" type="veh_passenger" />
    <trip id="passenger523" depart="115.00" from="-345009374#0" to="-131472024#1" type="veh_passenger" />
    <trip id="passenger53311" depart="115.00" from="-345009374#0" to="-131472024#1" type="veh_passenger" />
    <trip id="passenger543" depart="115.00" from="-345009374#0" to="-131472024#1" type="veh_passenger" />
    <trip id="passenger55311" depart="116.00" from="-345009374#0" to="-131472024#1" type="veh_passenger" />
    <trip id="passenger53312" depart="116.00" from="-345009374#0" to="-131472024#1" type="veh_passenger" />
    <trip id="passenger5231" depart="116.00" from="-345009374#0" to="-131472024#1" type="veh_passenger" />
    <trip id="passenger5331" depart="116.00" from="-345009374#0" to="-131472024#1" type="veh_passenger" />
    <trip id="passenger5431" depart="116.00" from="-345009374#0" to="-131472024#1" type="veh_passenger" />
    <trip id="passenger5531" depart="117.00" from="-345009374#0" to="-131472024#1" type="veh_passenger" />

    <!-- Trips from -345009374#0 to 362845469#1 -->
    <trip id="bus514" depart="117.00" from="-345009374#0" to="362845469#1" type="bus_bus" />
    <trip id="bus524" depart="117.00" from="-345009374#0" to="362845469#1" type="bus_bus" />
    <trip id="motorcycle314" depart="117.00" from="-345009374#0" to="362845469#1" type="motorcycle_motorcycle" />
    <trip id="motorcycle324" depart="117.00" from="-345009374#0" to="362845469#1" type="motorcycle_motorcycle" />
    <trip id="motorcycle334" depart="117.00" from="-345009374#0" to="362845469#1" type="motorcycle_motorcycle" />
    <trip id="passenger514" depart="117.00" from="-345009374#0" to="362845469#1" type="veh_passenger" />
    <trip id="passenger524" depart="117.00" from="-345009374#0" to="362845469#1" type="veh_passenger" />
    <trip id="passenger534" depart="117.00" from="-345009374#0" to="362845469#1" type="veh_passenger" />
    <trip id="passenger544" depart="117.00" from="-345009374#0" to="362845469#1" type="veh_passenger" />
    <trip id="passenger554" depart="118.00" from="-345009374#0" to="362845469#1" type="veh_passenger" />

    <!-- Trips from -345009374#0 to 279322509#4 -->
    <trip id="bus515" depart="118.00" from="-345009374#0" to="279322509#4" type="bus_bus" />
    <trip id="bus525" depart="118.00" from="-345009374#0" to="279322509#4" type="bus_bus" />
    <trip id="motorcycle315" depart="118.00" from="-345009374#0" to="279322509#4" type="motorcycle_motorcycle" />
    <trip id="motorcycle325" depart="118.00" from="-345009374#0" to="279322509#4" type="motorcycle_motorcycle" />
    <trip id="motorcycle335" depart="118.00" from="-345009374#0" to="279322509#4" type="motorcycle_motorcycle" />
    <trip id="passenger515" depart="118.00" from="-345009374#0" to="279322509#4" type="veh_passenger" />
    <trip id="passenger525" depart="118.00" from="-345009374#0" to="279322509#4" type="veh_passenger" />
    <trip id="passenger535" depart="118.00" from="-345009374#0" to="279322509#4" type="veh_passenger" />
    <trip id="passenger545" depart="118.00" from="-345009374#0" to="279322509#4" type="veh_passenger" />
    <trip id="passenger555" depart="119.00" from="-345009374#0" to="279322509#4" type="veh_passenger" />

    <!-- Trips from -345009374#0 to 993917081#6 -->
    <trip id="bus516" depart="119.00" from="-345009374#0" to="993917081#6" type="bus_bus" />
    <trip id="bus526" depart="119.00" from="-345009374#0" to="993917081#6" type="bus_bus" />
    <trip id="bus536" depart="119.00" from="-345009374#0" to="993917081#6" type="bus_bus" />
    <trip id="bus546" depart="119.00" from="-345009374#0" to="993917081#6" type="bus_bus" />
    <trip id="bus556" depart="119.00" from="-345009374#0" to="993917081#6" type="bus_bus" />
    <trip id="bus566" depart="119.00" from="-345009374#0" to="993917081#6" type="bus_bus" />
    <trip id="bus576" depart="119.00" from="-345009374#0" to="993917081#6" type="bus_bus" />
    <trip id="bus586" depart="119.00" from="-345009374#0" to="993917081#6" type="bus_bus" />
    <trip id="motorcycle316" depart="119.00" from="-345009374#0" to="993917081#6" type="motorcycle_motorcycle" />
    <trip id="motorcycle326" depart="119.00" from="-345009374#0" to="993917081#6" type="motorcycle_motorcycle" />
    <trip id="motorcycle336" depart="119.00" from="-345009374#0" to="993917081#6" type="motorcycle_motorcycle" />
    <trip id="passenger516" depart="119.00" from="-345009374#0" to="993917081#6" type="veh_passenger" />
    <trip id="passenger526" depart="119.00" from="-345009374#0" to="993917081#6" type="veh_passenger" />
    <trip id="passenger536" depart="119.00" from="-345009374#0" to="993917081#6" type="veh_passenger" />
    <trip id="passenger546" depart="119.00" from="-345009374#0" to="993917081#6" type="veh_passenger" />
    <trip id="passenger556" depart="119.00" from="-345009374#0" to="993917081#6" type="veh_passenger" />


    <!-- Trips from -345009374#0 to 281484617 -->
    <trip id="bus51" depart="120.00" from="-345009374#0" to="281484617" type="bus_bus" />
    <trip id="bus52" depart="120.00" from="-345009374#0" to="281484617" type="bus_bus" />
    <trip id="bus53" depart="120.00" from="-345009374#0" to="281484617" type="bus_bus" />
    <trip id="bus54" depart="120.00" from="-345009374#0" to="281484617" type="bus_bus" />
    <trip id="bus55" depart="120.00" from="-345009374#0" to="281484617" type="bus_bus" />
    <trip id="bus56" depart="120.00" from="-345009374#0" to="281484617" type="bus_bus" />
    <trip id="bus57" depart="120.00" from="-345009374#0" to="281484617" type="bus_bus" />
    <trip id="bus58" depart="120.00" from="-345009374#0" to="281484617" type="bus_bus" />
    <trip id="motorcycle31" depart="120.00" from="-345009374#0" to="281484617" type="motorcycle_motorcycle" />
    <trip id="motorcycle32" depart="120.00" from="-345009374#0" to="281484617" type="motorcycle_motorcycle" />
    <trip id="motorcycle33" depart="120.00" from="-345009374#0" to="281484617" type="motorcycle_motorcycle" />
    <trip id="passenger51" depart="121.00" from="-345009374#0" to="281484617" type="veh_passenger" />
    <trip id="passenger52" depart="121.00" from="-345009374#0" to="281484617" type="veh_passenger" />
    <trip id="passenger53" depart="121.00" from="-345009374#0" to="281484617" type="veh_passenger" />
    <trip id="passenger54" depart="121.00" from="-345009374#0" to="281484617" type="veh_passenger" />
    <trip id="passenger55" depart="121.00" from="-345009374#0" to="281484617" type="veh_passenger" />

    <!-- Trips from -345009374#0_1 to 1053836591 -->
    <trip id="motorcycle34" depart="121.00" from="-345009374#0" to="1053836591" type="motorcycle_motorcycle" />
    <trip id="motorcycle35" depart="121.00" from="-345009374#0" to="1053836591" type="motorcycle_motorcycle" />
    <trip id="motorcycle36" depart="121.00" from="-345009374#0" to="1053836591" type="motorcycle_motorcycle" />
    <trip id="motorcycle37" depart="121.00" from="-345009374#0" to="1053836591" type="motorcycle_motorcycle" />
    <trip id="motorcycle38" depart="121.00" from="-345009374#0" to="1053836591" type="motorcycle_motorcycle" />
    <trip id="motorcycle39" depart="121.00" from="-345009374#0" to="1053836591" type="motorcycle_motorcycle" />
    <trip id="motorcycle40" depart="122.00" from="-345009374#0" to="1053836591" type="motorcycle_motorcycle" />
    <trip id="motorcycle41" depart="123.00" from="-345009374#0" to="1053836591" type="motorcycle_motorcycle" />
    <trip id="passenger56" depart="124.00" from="-345009374#0" to="1053836591" type="veh_passenger" />
    <trip id="passenger57" depart="125.00" from="-345009374#0" to="1053836591" type="veh_passenger" />
    <trip id="passenger58" depart="126.00" from="-345009374#0" to="1053836591" type="veh_passenger" />
    <trip id="passenger59" depart="127.00" from="-345009374#0" to="1053836591" type="veh_passenger" />
    <trip id="passenger60" depart="128.00" from="-345009374#0" to="1053836591" type="veh_passenger" />
    <trip id="passenger61" depart="129.00" from="-345009374#0" to="1053836591" type="veh_passenger" />
    <trip id="passenger62" depart="130.00" from="-345009374#0" to="1053836591" type="veh_passenger" />
    <trip id="passenger63" depart="131.00" from="-345009374#0" to="1053836591" type="veh_passenger" />
    <trip id="passenger64" depart="132.00" from="-345009374#0" to="1053836591" type="veh_passenger" />
    <trip id="passenger65" depart="133.00" from="-345009374#0" to="1053836591" type="veh_passenger" />
    <trip id="passenger66" depart="134.00" from="-345009374#0" to="1053836591" type="veh_passenger" />
    <trip id="passenger67" depart="135.00" from="-345009374#0" to="1053836591" type="veh_passenger" />
    <trip id="passenger68" depart="136.00" from="-345009374#0" to="1053836591" type="veh_passenger" />
    <trip id="passenger69" depart="137.00" from="-345009374#0" to="1053836591" type="veh_passenger" />
    <trip id="passenger70" depart="138.00" from="-345009374#0" to="1053836591" type="veh_passenger" />
    <trip id="passenger71" depart="139.00" from="-345009374#0" to="1053836591" type="veh_passenger" />
    <trip id="passenger72" depart="140.00" from="-345009374#0" to="1053836591" type="veh_passenger" />
    <trip id="passenger73" depart="141.00" from="-345009374#0" to="1053836591" type="veh_passenger" />
    <trip id="passenger74" depart="142.00" from="-345009374#0" to="1053836591" type="veh_passenger" />
    <trip id="passenger75" depart="143.00" from="-345009374#0" to="1053836591" type="veh_passenger" />
    <trip id="passenger76" depart="144.00" from="-345009374#0" to="1053836591" type="veh_passenger" />
    <trip id="passenger77" depart="145.00" from="-345009374#0" to="1053836591" type="veh_passenger" />
    <trip id="passenger78" depart="146.00" from="-345009374#0" to="1053836591" type="veh_passenger" />
    <trip id="passenger79" depart="147.00" from="-345009374#0" to="1053836591" type="veh_passenger" />
    <trip id="passenger80" depart="148.00" from="-345009374#0" to="1053836591" type="veh_passenger" />
    <trip id="passenger81" depart="149.00" from="-345009374#0" to="1053836591" type="veh_passenger" />
    <trip id="passenger82" depart="150.00" from="-345009374#0" to="1053836591" type="veh_passenger" />
    <trip id="passenger83" depart="151.00" from="-345009374#0" to="1053836591" type="veh_passenger" />
    <trip id="passenger84" depart="152.00" from="-345009374#0" to="1053836591" type="veh_passenger" />
    <trip id="passenger85" depart="153.00" from="-345009374#0" to="1053836591" type="veh_passenger" />
    <trip id="passenger86" depart="154.00" from="-345009374#0" to="1053836591" type="veh_passenger" />
    <trip id="passenger87" depart="155.00" from="-345009374#0" to="1053836591" type="veh_passenger" />
    <trip id="passenger88" depart="156.00" from="-345009374#0" to="1053836591" type="veh_passenger" />
    <trip id="passenger89" depart="157.00" from="-345009374#0" to="1053836591" type="veh_passenger" />
    <trip id="passenger90" depart="158.00" from="-345009374#0" to="1053836591" type="veh_passenger" />