<?xml version="1.0" encoding="UTF-8"?>

<!-- generated on 2023-11-12 02:06:02 by Eclipse SUMO duarouter Version 1.18.0
<configuration xmlns:xsi="http://www.w3.org/2001/XMLSchema-instance" xsi:noNamespaceSchemaLocation="http://sumo.dlr.de/xsd/duarouterConfiguration.xsd">

    <input>
        <net-file value="osm.net.xml"/>
        <route-files value="tenbus.trips.xml"/>
    </input>

    <output>
        <output-file value="tenbus.rou.xml"/>
    </output>

</configuration>
-->

<routes xmlns:xsi="http://www.w3.org/2001/XMLSchema-instance" xsi:noNamespaceSchemaLocation="http://sumo.dlr.de/xsd/routes_file.xsd">
    <vType id="bus_bus" vClass="bus"/>
    <vehicle id="bus0_2" type="bus_bus" depart="0.00">
        <route edges="44769003#0 44769003#1 44769003#2 44769003#3 44769003#4 44769003#5 1050250061 1050248013 345262128#1 -1050248010#4 -1050248010#3 -1050248010#2 -1050248010#1 -1050248010#0 -345262129#37 -345262129#35 -345262129#34 -345262129#32 -345262129#31 -345262129#30 -345262129#29 -345262129#28 -345262129#27 -345262129#25 -345262129#24 -345262129#23 -345262129#22 -345262129#21 -345262129#20 -345262129#18 -345262129#17 -345262129#16 -345262129#15 -345262129#14 -345262129#11 -345262129#9 -345262129#8 -345262129#6"/>
    </vehicle>
    <vType id="motorcycle_motorcycle" vClass="motorcycle"/>
    <vehicle id="motorcycle0" type="motorcycle_motorcycle" depart="0.00">
        <route edges="44769003#0 44769003#1 44769003#2 44769003#3 44769003#4 44769003#5 1050250061 1050248013 345262128#1 -1050248010#4 -1050248010#3 -1050248010#2 -1050248010#1 -1050248010#0 -345262129#37 -345262129#35 -345262129#34 -345262129#32 -345262129#31 -345262129#30 -345262129#29 -345262129#28 -345262129#27 -345262129#25 -345262129#24 -345262129#23 -345262129#22 -345262129#21 -345262129#20 -345262129#18 -345262129#17 -345262129#16 -345262129#15 -345262129#14 -345262129#11 -345262129#9 -345262129#8 -345262129#6"/>
    </vehicle>
    <vehicle id="motorcycle1" type="motorcycle_motorcycle" depart="1.00">
        <route edges="44769003#0 44769003#1 44769003#2 44769003#3 44769003#4 44769003#5 1050250061 1050248013 345262128#1 -1050248010#4 -1050248010#3 -1050248010#2 -1050248010#1 -1050248010#0 -345262129#37 -345262129#35 -345262129#34 -345262129#32 -345262129#31 -345262129#30 -345262129#29 -345262129#28 -345262129#27 -345262129#25 -345262129#24 -345262129#23 -345262129#22 -345262129#21 -345262129#20 -345262129#18 -345262129#17 -345262129#16 -345262129#15 -345262129#14 -345262129#11 -345262129#9 -345262129#8 -345262129#6"/>
    </vehicle>
    <vType id="veh_passenger" vClass="passenger"/>
    <vehicle id="bus0_1_passenger_passenger0" type="veh_passenger" depart="1.00">
        <route edges="44769003#0 44769003#1 44769003#2 44769003#3 44769003#4 44769003#5 1050250061 1050248013 345262128#1 -1050248010#4 -1050248010#3 -1050248010#2 -1050248010#1 -1050248010#0 -345262129#37 -345262129#35 -345262129#34 -345262129#32 -345262129#31 -345262129#30 -345262129#29 -345262129#28 -345262129#27 -345262129#25 -345262129#24 -345262129#23 -345262129#22 -345262129#21 -345262129#20 -345262129#18 -345262129#17 -345262129#16 -345262129#15 -345262129#14 -345262129#11 -345262129#9 -345262129#8 -345262129#6"/>
    </vehicle>
    <vehicle id="bus0_1_passenger_passenger1" type="veh_passenger" depart="1.00">
        <route edges="44769003#0 44769003#1 44769003#2 44769003#3 44769003#4 44769003#5 1050250061 1050248013 345262128#1 -1050248010#4 -1050248010#3 -1050248010#2 -1050248010#1 -1050248010#0 -345262129#37 -345262129#35 -345262129#34 -345262129#32 -345262129#31 -345262129#30 -345262129#29 -345262129#28 -345262129#27 -345262129#25 -345262129#24 -345262129#23 -345262129#22 -345262129#21 -345262129#20 -345262129#18 -345262129#17 -345262129#16 -345262129#15 -345262129#14 -345262129#11 -345262129#9 -345262129#8 -345262129#6"/>
    </vehicle>
    <vehicle id="bus0_1_passenger_passenger2" type="veh_passenger" depart="1.00">
        <route edges="44769003#0 44769003#1 44769003#2 44769003#3 44769003#4 44769003#5 1050250061 1050248013 345262128#1 -1050248010#4 -1050248010#3 -1050248010#2 -1050248010#1 -1050248010#0 -345262129#37 -345262129#35 -345262129#34 -345262129#32 -345262129#31 -345262129#30 -345262129#29 -345262129#28 -345262129#27 -345262129#25 -345262129#24 -345262129#23 -345262129#22 -345262129#21 -345262129#20 -345262129#18 -345262129#17 -345262129#16 -345262129#15 -345262129#14 -345262129#11 -345262129#9 -345262129#8 -345262129#6"/>
    </vehicle>
    <vehicle id="bus0_1_passenger_passenger3" type="veh_passenger" depart="1.00">
        <route edges="44769003#0 44769003#1 44769003#2 44769003#3 44769003#4 44769003#5 1050250061 1050248013 345262128#1 -1050248010#4 -1050248010#3 -1050248010#2 -1050248010#1 -1050248010#0 -345262129#37 -345262129#35 -345262129#34 -345262129#32 -345262129#31 -345262129#30 -345262129#29 -345262129#28 -345262129#27 -345262129#25 -345262129#24 -345262129#23 -345262129#22 -345262129#21 -345262129#20 -345262129#18 -345262129#17 -345262129#16 -345262129#15 -345262129#14 -345262129#11 -345262129#9 -345262129#8 -345262129#6"/>
    </vehicle>
    <vehicle id="bus0_1_passenger_passenger4" type="veh_passenger" depart="1.00">
        <route edges="44769003#0 44769003#1 44769003#2 44769003#3 44769003#4 44769003#5 1050250061 1050248013 345262128#1 -1050248010#4 -1050248010#3 -1050248010#2 -1050248010#1 -1050248010#0 -345262129#37 -345262129#35 -345262129#34 -345262129#32 -345262129#31 -345262129#30 -345262129#29 -345262129#28 -345262129#27 -345262129#25 -345262129#24 -345262129#23 -345262129#22 -345262129#21 -345262129#20 -345262129#18 -345262129#17 -345262129#16 -345262129#15 -345262129#14 -345262129#11 -345262129#9 -345262129#8 -345262129#6"/>
    </vehicle>
    <vehicle id="bus0_1_passenger_passenger5" type="veh_passenger" depart="1.00">
        <route edges="44769003#0 44769003#1 44769003#2 44769003#3 44769003#4 44769003#5 1050250061 1050248013 345262128#1 -1050248010#4 -1050248010#3 -1050248010#2 -1050248010#1 -1050248010#0 -345262129#37 -345262129#35 -345262129#34 -345262129#32 -345262129#31 -345262129#30 -345262129#29 -345262129#28 -345262129#27 -345262129#25 -345262129#24 -345262129#23 -345262129#22 -345262129#21 -345262129#20 -345262129#18 -345262129#17 -345262129#16 -345262129#15 -345262129#14 -345262129#11 -345262129#9 -345262129#8 -345262129#6"/>
    </vehicle>
    <vehicle id="bus0_1_passenger_passenger6" type="veh_passenger" depart="1.00">
        <route edges="44769003#0 44769003#1 44769003#2 44769003#3 44769003#4 44769003#5 1050250061 1050248013 345262128#1 -1050248010#4 -1050248010#3 -1050248010#2 -1050248010#1 -1050248010#0 -345262129#37 -345262129#35 -345262129#34 -345262129#32 -345262129#31 -345262129#30 -345262129#29 -345262129#28 -345262129#27 -345262129#25 -345262129#24 -345262129#23 -345262129#22 -345262129#21 -345262129#20 -345262129#18 -345262129#17 -345262129#16 -345262129#15 -345262129#14 -345262129#11 -345262129#9 -345262129#8 -345262129#6"/>
    </vehicle>
    <vehicle id="bus0_1_passenger_passenger7" type="veh_passenger" depart="1.00">
        <route edges="44769003#0 44769003#1 44769003#2 44769003#3 44769003#4 44769003#5 1050250061 1050248013 345262128#1 -1050248010#4 -1050248010#3 -1050248010#2 -1050248010#1 -1050248010#0 -345262129#37 -345262129#35 -345262129#34 -345262129#32 -345262129#31 -345262129#30 -345262129#29 -345262129#28 -345262129#27 -345262129#25 -345262129#24 -345262129#23 -345262129#22 -345262129#21 -345262129#20 -345262129#18 -345262129#17 -345262129#16 -345262129#15 -345262129#14 -345262129#11 -345262129#9 -345262129#8 -345262129#6"/>
    </vehicle>
    <vehicle id="bus0_3_passenger_passenger0" type="veh_passenger" depart="1.00">
        <route edges="44769003#0 44769003#1 44769003#2 44769003#3 44769003#4 44769003#5 1050250061 1050248013 345262128#1 -1050248010#4 -1050248010#3 -1050248010#2 -1050248010#1 -1050248010#0 -345262129#37 -345262129#35 -345262129#34 -345262129#32 -345262129#31 -345262129#30 -345262129#29 -345262129#28 -345262129#27 -345262129#25 -345262129#24 -345262129#23 -345262129#22 -345262129#21 -345262129#20 -345262129#18 -345262129#17 -345262129#16 -345262129#15 -345262129#14 -345262129#11 -345262129#9 -345262129#8 -345262129#6"/>
    </vehicle>
    <vehicle id="bus0_3_passenger_passenger1" type="veh_passenger" depart="1.00">
        <route edges="44769003#0 44769003#1 44769003#2 44769003#3 44769003#4 44769003#5 1050250061 1050248013 345262128#1 -1050248010#4 -1050248010#3 -1050248010#2 -1050248010#1 -1050248010#0 -345262129#37 -345262129#35 -345262129#34 -345262129#32 -345262129#31 -345262129#30 -345262129#29 -345262129#28 -345262129#27 -345262129#25 -345262129#24 -345262129#23 -345262129#22 -345262129#21 -345262129#20 -345262129#18 -345262129#17 -345262129#16 -345262129#15 -345262129#14 -345262129#11 -345262129#9 -345262129#8 -345262129#6"/>
    </vehicle>
    <vehicle id="bus0_3_passenger_passenger2" type="veh_passenger" depart="1.00">
        <route edges="44769003#0 44769003#1 44769003#2 44769003#3 44769003#4 44769003#5 1050250061 1050248013 345262128#1 -1050248010#4 -1050248010#3 -1050248010#2 -1050248010#1 -1050248010#0 -345262129#37 -345262129#35 -345262129#34 -345262129#32 -345262129#31 -345262129#30 -345262129#29 -345262129#28 -345262129#27 -345262129#25 -345262129#24 -345262129#23 -345262129#22 -345262129#21 -345262129#20 -345262129#18 -345262129#17 -345262129#16 -345262129#15 -345262129#14 -345262129#11 -345262129#9 -345262129#8 -345262129#6"/>
    </vehicle>
    <vehicle id="bus0_3_passenger_passenger3" type="veh_passenger" depart="1.00">
        <route edges="44769003#0 44769003#1 44769003#2 44769003#3 44769003#4 44769003#5 1050250061 1050248013 345262128#1 -1050248010#4 -1050248010#3 -1050248010#2 -1050248010#1 -1050248010#0 -345262129#37 -345262129#35 -345262129#34 -345262129#32 -345262129#31 -345262129#30 -345262129#29 -345262129#28 -345262129#27 -345262129#25 -345262129#24 -345262129#23 -345262129#22 -345262129#21 -345262129#20 -345262129#18 -345262129#17 -345262129#16 -345262129#15 -345262129#14 -345262129#11 -345262129#9 -345262129#8 -345262129#6"/>
    </vehicle>
    <vehicle id="bus0_3_passenger_passenger4" type="veh_passenger" depart="1.00">
        <route edges="44769003#0 44769003#1 44769003#2 44769003#3 44769003#4 44769003#5 1050250061 1050248013 345262128#1 -1050248010#4 -1050248010#3 -1050248010#2 -1050248010#1 -1050248010#0 -345262129#37 -345262129#35 -345262129#34 -345262129#32 -345262129#31 -345262129#30 -345262129#29 -345262129#28 -345262129#27 -345262129#25 -345262129#24 -345262129#23 -345262129#22 -345262129#21 -345262129#20 -345262129#18 -345262129#17 -345262129#16 -345262129#15 -345262129#14 -345262129#11 -345262129#9 -345262129#8 -345262129#6"/>
    </vehicle>
    <vehicle id="bus0_3_passenger_passenger5" type="veh_passenger" depart="1.00">
        <route edges="44769003#0 44769003#1 44769003#2 44769003#3 44769003#4 44769003#5 1050250061 1050248013 345262128#1 -1050248010#4 -1050248010#3 -1050248010#2 -1050248010#1 -1050248010#0 -345262129#37 -345262129#35 -345262129#34 -345262129#32 -345262129#31 -345262129#30 -345262129#29 -345262129#28 -345262129#27 -345262129#25 -345262129#24 -345262129#23 -345262129#22 -345262129#21 -345262129#20 -345262129#18 -345262129#17 -345262129#16 -345262129#15 -345262129#14 -345262129#11 -345262129#9 -345262129#8 -345262129#6"/>
    </vehicle>
    <vehicle id="bus0_3_passenger_passenger6" type="veh_passenger" depart="1.00">
        <route edges="44769003#0 44769003#1 44769003#2 44769003#3 44769003#4 44769003#5 1050250061 1050248013 345262128#1 -1050248010#4 -1050248010#3 -1050248010#2 -1050248010#1 -1050248010#0 -345262129#37 -345262129#35 -345262129#34 -345262129#32 -345262129#31 -345262129#30 -345262129#29 -345262129#28 -345262129#27 -345262129#25 -345262129#24 -345262129#23 -345262129#22 -345262129#21 -345262129#20 -345262129#18 -345262129#17 -345262129#16 -345262129#15 -345262129#14 -345262129#11 -345262129#9 -345262129#8 -345262129#6"/>
    </vehicle>
    <vehicle id="bus0_3_passenger_passenger7" type="veh_passenger" depart="1.00">
        <route edges="44769003#0 44769003#1 44769003#2 44769003#3 44769003#4 44769003#5 1050250061 1050248013 345262128#1 -1050248010#4 -1050248010#3 -1050248010#2 -1050248010#1 -1050248010#0 -345262129#37 -345262129#35 -345262129#34 -345262129#32 -345262129#31 -345262129#30 -345262129#29 -345262129#28 -345262129#27 -345262129#25 -345262129#24 -345262129#23 -345262129#22 -345262129#21 -345262129#20 -345262129#18 -345262129#17 -345262129#16 -345262129#15 -345262129#14 -345262129#11 -345262129#9 -345262129#8 -345262129#6"/>
    </vehicle>
    <vehicle id="motorcycle2" type="motorcycle_motorcycle" depart="2.00">
        <route edges="44769003#0 44769003#1 44769003#2 44769003#3 44769003#4 44769003#5 1050250061 1050248013 345262128#1 -1050248010#4 -1050248010#3 -1050248010#2 -1050248010#1 -1050248010#0 -345262129#37 -345262129#35 -345262129#34 -345262129#32 -345262129#31 -345262129#30 -345262129#29 -345262129#28 -345262129#27 -345262129#25 -345262129#24 -345262129#23 -345262129#22 -345262129#21 -345262129#20 -345262129#18 -345262129#17 -345262129#16 -345262129#15 -345262129#14 -345262129#11 -345262129#9 -345262129#8 -345262129#6"/>
    </vehicle>
    <vehicle id="passenger0" type="veh_passenger" depart="3.00">
        <route edges="44769003#0 44769003#1 44769003#2 44769003#3 44769003#4 44769003#5 1050250061 1050248013 345262128#1 -1050248010#4 -1050248010#3 -1050248010#2 -1050248010#1 -1050248010#0 -345262129#37 -345262129#35 -345262129#34 -345262129#32 -345262129#31 -345262129#30 -345262129#29 -345262129#28 -345262129#27 -345262129#25 -345262129#24 -345262129#23 -345262129#22 -345262129#21 -345262129#20 -345262129#18 -345262129#17 -345262129#16 -345262129#15 -345262129#14 -345262129#11 -345262129#9 -345262129#8 -345262129#6"/>
    </vehicle>
    <vehicle id="passenger1" type="veh_passenger" depart="4.00">
        <route edges="44769003#0 44769003#1 44769003#2 44769003#3 44769003#4 44769003#5 1050250061 1050248013 345262128#1 -1050248010#4 -1050248010#3 -1050248010#2 -1050248010#1 -1050248010#0 -345262129#37 -345262129#35 -345262129#34 -345262129#32 -345262129#31 -345262129#30 -345262129#29 -345262129#28 -345262129#27 -345262129#25 -345262129#24 -345262129#23 -345262129#22 -345262129#21 -345262129#20 -345262129#18 -345262129#17 -345262129#16 -345262129#15 -345262129#14 -345262129#11 -345262129#9 -345262129#8 -345262129#6"/>
    </vehicle>
    <vehicle id="passenger2" type="veh_passenger" depart="5.00">
        <route edges="44769003#0 44769003#1 44769003#2 44769003#3 44769003#4 44769003#5 1050250061 1050248013 345262128#1 -1050248010#4 -1050248010#3 -1050248010#2 -1050248010#1 -1050248010#0 -345262129#37 -345262129#35 -345262129#34 -345262129#32 -345262129#31 -345262129#30 -345262129#29 -345262129#28 -345262129#27 -345262129#25 -345262129#24 -345262129#23 -345262129#22 -345262129#21 -345262129#20 -345262129#18 -345262129#17 -345262129#16 -345262129#15 -345262129#14 -345262129#11 -345262129#9 -345262129#8 -345262129#6"/>
    </vehicle>
    <vehicle id="passenger3" type="veh_passenger" depart="6.00">
        <route edges="44769003#0 44769003#1 44769003#2 44769003#3 44769003#4 44769003#5 1050250061 1050248013 345262128#1 -1050248010#4 -1050248010#3 -1050248010#2 -1050248010#1 -1050248010#0 -345262129#37 -345262129#35 -345262129#34 -345262129#32 -345262129#31 -345262129#30 -345262129#29 -345262129#28 -345262129#27 -345262129#25 -345262129#24 -345262129#23 -345262129#22 -345262129#21 -345262129#20 -345262129#18 -345262129#17 -345262129#16 -345262129#15 -345262129#14 -345262129#11 -345262129#9 -345262129#8 -345262129#6"/>
    </vehicle>
    <vehicle id="passenger4" type="veh_passenger" depart="7.00">
        <route edges="44769003#0 44769003#1 44769003#2 44769003#3 44769003#4 44769003#5 1050250061 1050248013 345262128#1 -1050248010#4 -1050248010#3 -1050248010#2 -1050248010#1 -1050248010#0 -345262129#37 -345262129#35 -345262129#34 -345262129#32 -345262129#31 -345262129#30 -345262129#29 -345262129#28 -345262129#27 -345262129#25 -345262129#24 -345262129#23 -345262129#22 -345262129#21 -345262129#20 -345262129#18 -345262129#17 -345262129#16 -345262129#15 -345262129#14 -345262129#11 -345262129#9 -345262129#8 -345262129#6"/>
    </vehicle>
    <vehicle id="passenger5" type="veh_passenger" depart="8.00">
        <route edges="44769003#0 44769003#1 44769003#2 44769003#3 44769003#4 44769003#5 1050250061 1050248013 345262128#1 -1050248010#4 -1050248010#3 -1050248010#2 -1050248010#1 -1050248010#0 -345262129#37 -345262129#35 -345262129#34 -345262129#32 -345262129#31 -345262129#30 -345262129#29 -345262129#28 -345262129#27 -345262129#25 -345262129#24 -345262129#23 -345262129#22 -345262129#21 -345262129#20 -345262129#18 -345262129#17 -345262129#16 -345262129#15 -345262129#14 -345262129#11 -345262129#9 -345262129#8 -345262129#6"/>
    </vehicle>
    <vehicle id="passenger6" type="veh_passenger" depart="9.00">
        <route edges="44769003#0 44769003#1 44769003#2 44769003#3 44769003#4 44769003#5 1050250061 1050248013 345262128#1 -1050248010#4 -1050248010#3 -1050248010#2 -1050248010#1 -1050248010#0 -345262129#37 -345262129#35 -345262129#34 -345262129#32 -345262129#31 -345262129#30 -345262129#29 -345262129#28 -345262129#27 -345262129#25 -345262129#24 -345262129#23 -345262129#22 -345262129#21 -345262129#20 -345262129#18 -345262129#17 -345262129#16 -345262129#15 -345262129#14 -345262129#11 -345262129#9 -345262129#8 -345262129#6"/>
    </vehicle>
    <vehicle id="passenger7" type="veh_passenger" depart="10.00">
        <route edges="44769003#0 44769003#1 44769003#2 44769003#3 44769003#4 44769003#5 1050250061 1050248013 345262128#1 -1050248010#4 -1050248010#3 -1050248010#2 -1050248010#1 -1050248010#0 -345262129#37 -345262129#35 -345262129#34 -345262129#32 -345262129#31 -345262129#30 -345262129#29 -345262129#28 -345262129#27 -345262129#25 -345262129#24 -345262129#23 -345262129#22 -345262129#21 -345262129#20 -345262129#18 -345262129#17 -345262129#16 -345262129#15 -345262129#14 -345262129#11 -345262129#9 -345262129#8 -345262129#6"/>
    </vehicle>
    <vehicle id="passenger8" type="veh_passenger" depart="11.00">
        <route edges="44769003#0 44769003#1 44769003#2 44769003#3 44769003#4 44769003#5 1050250061 1050248013 345262128#1 -1050248010#4 -1050248010#3 -1050248010#2 -1050248010#1 -1050248010#0 -345262129#37 -345262129#35 -345262129#34 -345262129#32 -345262129#31 -345262129#30 -345262129#29 -345262129#28 -345262129#27 -345262129#25 -345262129#24 -345262129#23 -345262129#22 -345262129#21 -345262129#20 -345262129#18 -345262129#17 -345262129#16 -345262129#15 -345262129#14 -345262129#11 -345262129#9 -345262129#8 -345262129#6"/>
    </vehicle>
    <vehicle id="passenger9" type="veh_passenger" depart="12.00">
        <route edges="44769003#0 44769003#1 44769003#2 44769003#3 44769003#4 44769003#5 1050250061 1050248013 345262128#1 -1050248010#4 -1050248010#3 -1050248010#2 -1050248010#1 -1050248010#0 -345262129#37 -345262129#35 -345262129#34 -345262129#32 -345262129#31 -345262129#30 -345262129#29 -345262129#28 -345262129#27 -345262129#25 -345262129#24 -345262129#23 -345262129#22 -345262129#21 -345262129#20 -345262129#18 -345262129#17 -345262129#16 -345262129#15 -345262129#14 -345262129#11 -345262129#9 -345262129#8 -345262129#6"/>
    </vehicle>
    <vehicle id="bus11" type="bus_bus" depart="13.00">
        <route edges="44769003#0 44769003#1 44769003#2 44769003#3 44769003#4 44769003#5 1050250061 -461660910#10 461660910#10"/>
    </vehicle>
    <vehicle id="bus13" type="bus_bus" depart="13.00">
        <route edges="44769003#0 44769003#1 44769003#2 44769003#3 44769003#4 44769003#5 1050250061 -461660910#10 461660910#10"/>
    </vehicle>
    <vehicle id="motorcycle3" type="motorcycle_motorcycle" depart="13.00">
        <route edges="44769003#0 44769003#1 44769003#2 44769003#3 44769003#4 44769003#5 1050250061 -461660910#10 461660910#10"/>
    </vehicle>
    <vehicle id="motorcycle4" type="motorcycle_motorcycle" depart="13.00">
        <route edges="44769003#0 44769003#1 44769003#2 44769003#3 44769003#4 44769003#5 1050250061 -461660910#10 461660910#10"/>
    </vehicle>
    <vehicle id="motorcycle5" type="motorcycle_motorcycle" depart="13.00">
        <route edges="44769003#0 44769003#1 44769003#2 44769003#3 44769003#4 44769003#5 1050250061 -461660910#10 461660910#10"/>
    </vehicle>
    <vehicle id="motorcycle6" type="motorcycle_motorcycle" depart="13.00">
        <route edges="44769003#0 44769003#1 44769003#2 44769003#3 44769003#4 44769003#5 1050250061 -461660910#10 461660910#10"/>
    </vehicle>
    <vehicle id="motorcycle7" type="motorcycle_motorcycle" depart="13.00">
        <route edges="44769003#0 44769003#1 44769003#2 44769003#3 44769003#4 44769003#5 1050250061 -461660910#10 461660910#10"/>
    </vehicle>
    <vehicle id="passenger10" type="veh_passenger" depart="13.00">
        <route edges="44769003#0 44769003#1 44769003#2 44769003#3 44769003#4 44769003#5 1050250061 -461660910#10 461660910#10"/>
    </vehicle>
    <vehicle id="passenger11" type="veh_passenger" depart="13.00">
        <route edges="44769003#0 44769003#1 44769003#2 44769003#3 44769003#4 44769003#5 1050250061 -461660910#10 461660910#10"/>
    </vehicle>
    <vehicle id="passenger12" type="veh_passenger" depart="13.00">
        <route edges="44769003#0 44769003#1 44769003#2 44769003#3 44769003#4 44769003#5 1050250061 -461660910#10 461660910#10"/>
    </vehicle>
    <vehicle id="passenger13" type="veh_passenger" depart="13.00">
        <route edges="44769003#0 44769003#1 44769003#2 44769003#3 44769003#4 44769003#5 1050250061 -461660910#10 461660910#10"/>
    </vehicle>
    <vehicle id="passenger14" type="veh_passenger" depart="14.00">
        <route edges="44769003#0 44769003#1 44769003#2 44769003#3 44769003#4 44769003#5 1050250061 -461660910#10 461660910#10"/>
    </vehicle>
    <vehicle id="bus10_passenger_passenger0" type="veh_passenger" depart="14.00">
        <route edges="44769003#0 44769003#1 44769003#2 44769003#3 44769003#4 44769003#5 1050250061 -461660910#10 461660910#10"/>
    </vehicle>
    <vehicle id="bus10_passenger_passenger1" type="veh_passenger" depart="14.00">
        <route edges="44769003#0 44769003#1 44769003#2 44769003#3 44769003#4 44769003#5 1050250061 -461660910#10 461660910#10"/>
    </vehicle>
    <vehicle id="bus10_passenger_passenger2" type="veh_passenger" depart="14.00">
        <route edges="44769003#0 44769003#1 44769003#2 44769003#3 44769003#4 44769003#5 1050250061 -461660910#10 461660910#10"/>
    </vehicle>
    <vehicle id="bus10_passenger_passenger3" type="veh_passenger" depart="14.00">
        <route edges="44769003#0 44769003#1 44769003#2 44769003#3 44769003#4 44769003#5 1050250061 -461660910#10 461660910#10"/>
    </vehicle>
    <vehicle id="bus10_passenger_passenger4" type="veh_passenger" depart="14.00">
        <route edges="44769003#0 44769003#1 44769003#2 44769003#3 44769003#4 44769003#5 1050250061 -461660910#10 461660910#10"/>
    </vehicle>
    <vehicle id="bus10_passenger_passenger5" type="veh_passenger" depart="14.00">
        <route edges="44769003#0 44769003#1 44769003#2 44769003#3 44769003#4 44769003#5 1050250061 -461660910#10 461660910#10"/>
    </vehicle>
    <vehicle id="bus10_passenger_passenger6" type="veh_passenger" depart="14.00">
        <route edges="44769003#0 44769003#1 44769003#2 44769003#3 44769003#4 44769003#5 1050250061 -461660910#10 461660910#10"/>
    </vehicle>
    <vehicle id="bus10_passenger_passenger7" type="veh_passenger" depart="14.00">
        <route edges="44769003#0 44769003#1 44769003#2 44769003#3 44769003#4 44769003#5 1050250061 -461660910#10 461660910#10"/>
    </vehicle>
    <vehicle id="bus12_passenger_passenger0" type="veh_passenger" depart="14.00">
        <route edges="44769003#0 44769003#1 44769003#2 44769003#3 44769003#4 44769003#5 1050250061 -461660910#10 461660910#10"/>
    </vehicle>
    <vehicle id="bus12_passenger_passenger1" type="veh_passenger" depart="14.00">
        <route edges="44769003#0 44769003#1 44769003#2 44769003#3 44769003#4 44769003#5 1050250061 -461660910#10 461660910#10"/>
    </vehicle>
    <vehicle id="bus12_passenger_passenger2" type="veh_passenger" depart="14.00">
        <route edges="44769003#0 44769003#1 44769003#2 44769003#3 44769003#4 44769003#5 1050250061 -461660910#10 461660910#10"/>
    </vehicle>
    <vehicle id="bus12_passenger_passenger3" type="veh_passenger" depart="14.00">
        <route edges="44769003#0 44769003#1 44769003#2 44769003#3 44769003#4 44769003#5 1050250061 -461660910#10 461660910#10"/>
    </vehicle>
    <vehicle id="bus12_passenger_passenger4" type="veh_passenger" depart="14.00">
        <route edges="44769003#0 44769003#1 44769003#2 44769003#3 44769003#4 44769003#5 1050250061 -461660910#10 461660910#10"/>
    </vehicle>
    <vehicle id="bus12_passenger_passenger5" type="veh_passenger" depart="14.00">
        <route edges="44769003#0 44769003#1 44769003#2 44769003#3 44769003#4 44769003#5 1050250061 -461660910#10 461660910#10"/>
    </vehicle>
    <vehicle id="bus12_passenger_passenger6" type="veh_passenger" depart="14.00">
        <route edges="44769003#0 44769003#1 44769003#2 44769003#3 44769003#4 44769003#5 1050250061 -461660910#10 461660910#10"/>
    </vehicle>
    <vehicle id="bus12_passenger_passenger7" type="veh_passenger" depart="14.00">
        <route edges="44769003#0 44769003#1 44769003#2 44769003#3 44769003#4 44769003#5 1050250061 -461660910#10 461660910#10"/>
    </vehicle>
    <vehicle id="bus14_passenger_passenger0" type="veh_passenger" depart="14.00">
        <route edges="44769003#0 44769003#1 44769003#2 44769003#3 44769003#4 44769003#5 1050250061 -461660910#10 461660910#10"/>
    </vehicle>
    <vehicle id="bus14_passenger_passenger1" type="veh_passenger" depart="14.00">
        <route edges="44769003#0 44769003#1 44769003#2 44769003#3 44769003#4 44769003#5 1050250061 -461660910#10 461660910#10"/>
    </vehicle>
    <vehicle id="bus14_passenger_passenger2" type="veh_passenger" depart="14.00">
        <route edges="44769003#0 44769003#1 44769003#2 44769003#3 44769003#4 44769003#5 1050250061 -461660910#10 461660910#10"/>
    </vehicle>
    <vehicle id="bus14_passenger_passenger3" type="veh_passenger" depart="14.00">
        <route edges="44769003#0 44769003#1 44769003#2 44769003#3 44769003#4 44769003#5 1050250061 -461660910#10 461660910#10"/>
    </vehicle>
    <vehicle id="bus14_passenger_passenger4" type="veh_passenger" depart="14.00">
        <route edges="44769003#0 44769003#1 44769003#2 44769003#3 44769003#4 44769003#5 1050250061 -461660910#10 461660910#10"/>
    </vehicle>
    <vehicle id="bus14_passenger_passenger5" type="veh_passenger" depart="14.00">
        <route edges="44769003#0 44769003#1 44769003#2 44769003#3 44769003#4 44769003#5 1050250061 -461660910#10 461660910#10"/>
    </vehicle>
    <vehicle id="bus14_passenger_passenger6" type="veh_passenger" depart="14.00">
        <route edges="44769003#0 44769003#1 44769003#2 44769003#3 44769003#4 44769003#5 1050250061 -461660910#10 461660910#10"/>
    </vehicle>
    <vehicle id="bus14_passenger_passenger7" type="veh_passenger" depart="14.00">
        <route edges="44769003#0 44769003#1 44769003#2 44769003#3 44769003#4 44769003#5 1050250061 -461660910#10 461660910#10"/>
    </vehicle>
    <vehicle id="bus16" type="bus_bus" depart="16.00">
        <route edges="44769003#0 44769003#1 44769003#2 44769003#3 44769003#4 44769003#5 44769003#6 44769003#7 44769003#8 44769003#9 44769003#10 344452136#0 344452136#1 344452136#2 344452136#3 344452136#4 344452136#5 344452136#6 131381685#0 131381685#1 -131472024#2 -131472024#1"/>
    </vehicle>
    <vehicle id="bus15_passenger_passenger0" type="veh_passenger" depart="16.00">
        <route edges="44769003#0 44769003#1 44769003#2 44769003#3 44769003#4 44769003#5 44769003#6 44769003#7 44769003#8 44769003#9 44769003#10 344452136#0 344452136#1 344452136#2 344452136#3 344452136#4 344452136#5 344452136#6 131381685#0 131381685#1 -131472024#2 -131472024#1"/>
    </vehicle>
    <vehicle id="bus15_passenger_passenger1" type="veh_passenger" depart="16.00">
        <route edges="44769003#0 44769003#1 44769003#2 44769003#3 44769003#4 44769003#5 44769003#6 44769003#7 44769003#8 44769003#9 44769003#10 344452136#0 344452136#1 344452136#2 344452136#3 344452136#4 344452136#5 344452136#6 131381685#0 131381685#1 -131472024#2 -131472024#1"/>
    </vehicle>
    <vehicle id="bus15_passenger_passenger2" type="veh_passenger" depart="16.00">
        <route edges="44769003#0 44769003#1 44769003#2 44769003#3 44769003#4 44769003#5 44769003#6 44769003#7 44769003#8 44769003#9 44769003#10 344452136#0 344452136#1 344452136#2 344452136#3 344452136#4 344452136#5 344452136#6 131381685#0 131381685#1 -131472024#2 -131472024#1"/>
    </vehicle>
    <vehicle id="bus15_passenger_passenger3" type="veh_passenger" depart="16.00">
        <route edges="44769003#0 44769003#1 44769003#2 44769003#3 44769003#4 44769003#5 44769003#6 44769003#7 44769003#8 44769003#9 44769003#10 344452136#0 344452136#1 344452136#2 344452136#3 344452136#4 344452136#5 344452136#6 131381685#0 131381685#1 -131472024#2 -131472024#1"/>
    </vehicle>
    <vehicle id="bus15_passenger_passenger4" type="veh_passenger" depart="16.00">
        <route edges="44769003#0 44769003#1 44769003#2 44769003#3 44769003#4 44769003#5 44769003#6 44769003#7 44769003#8 44769003#9 44769003#10 344452136#0 344452136#1 344452136#2 344452136#3 344452136#4 344452136#5 344452136#6 131381685#0 131381685#1 -131472024#2 -131472024#1"/>
    </vehicle>
    <vehicle id="bus15_passenger_passenger5" type="veh_passenger" depart="16.00">